<?xml version="1.0" encoding="UTF-8"?>

<!-- generated on 2022-12-07 07:31:53 by Eclipse SUMO netedit Version v1_15_0+0458-51ec70498d8
<configuration xmlns:xsi="http://www.w3.org/2001/XMLSchema-instance" xsi:noNamespaceSchemaLocation="http://sumo.dlr.de/xsd/netconvertConfiguration.xsd">

    <input>
        <sumo-net-file value="/Users/parkjong-eun/ParkJongeun/3-2/Reinforcement_learning/sumo/tools/rotary1/osm.net.xml.gz"/>
    </input>

    <output>
        <output-file value="/Users/parkjong-eun/ParkJongeun/3-2/Reinforcement_learning/sumo/tools/rotary1/rotarynet.net.xml"/>
        <output.street-names value="true"/>
    </output>

    <processing>
        <geometry.min-radius.fix.railways value="false"/>
        <geometry.max-grade.fix value="false"/>
        <offset.disable-normalization value="true"/>
        <lefthand value="1"/>
    </processing>

    <junctions>
        <no-turnarounds value="true"/>
        <junctions.corner-detail value="5"/>
        <junctions.limit-turn-speed value="5.50"/>
        <rectangular-lane-cut value="0"/>
    </junctions>

    <pedestrian>
        <walkingareas value="0"/>
    </pedestrian>

    <netedit>
        <SUMOcfg-output value="/Users/parkjong-eun/ParkJongeun/3-2/Reinforcement_learning/sumo/tools/rotary1/rotary2.sumocfg"/>
        <route-files value="/Users/parkjong-eun/ParkJongeun/3-2/Reinforcement_learning/sumo/tools/rotary1/osm.passenger.trips.xml"/>
        <TLSPrograms-output value="/Users/parkjong-eun/ParkJongeun/3-2/Reinforcement_learning/sumo/tools/rotary1/config_rotary.xml"/>
    </netedit>

</configuration>
-->

<net version="1.9" junctionCornerDetail="5" lefthand="true" limitTurnSpeed="5.50" xmlns:xsi="http://www.w3.org/2001/XMLSchema-instance" xsi:noNamespaceSchemaLocation="http://sumo.dlr.de/xsd/net_file.xsd">

    <location netOffset="-323084.36,-4160971.18" convBoundary="0.00,0.00,862.34,1213.75" origBoundary="126.996420,37.578903,127.022054,37.601549" projParameter="+proj=utm +zone=52 +ellps=WGS84 +datum=WGS84 +units=m +no_defs"/>

    <type id="highway.bridleway" priority="1" numLanes="1" speed="2.78" allow="pedestrian" oneway="1" width="2.00"/>
    <type id="highway.bus_guideway" priority="1" numLanes="1" speed="27.78" allow="bus" oneway="1"/>
    <type id="highway.cycleway" priority="1" numLanes="1" speed="5.56" allow="bicycle" oneway="0" width="1.00"/>
    <type id="highway.footway" priority="1" numLanes="1" speed="2.78" allow="pedestrian" oneway="1" width="2.00"/>
    <type id="highway.ford" priority="1" numLanes="1" speed="2.78" allow="army" oneway="0"/>
    <type id="highway.living_street" priority="2" numLanes="1" speed="2.78" disallow="tram rail_urban rail rail_electric rail_fast ship" oneway="0"/>
    <type id="highway.motorway" priority="14" numLanes="2" speed="39.44" allow="private emergency authority army vip passenger hov taxi bus coach delivery truck trailer motorcycle evehicle custom1 custom2" oneway="1"/>
    <type id="highway.motorway_link" priority="9" numLanes="1" speed="22.22" allow="private emergency authority army vip passenger hov taxi bus coach delivery truck trailer motorcycle evehicle custom1 custom2" oneway="1"/>
    <type id="highway.path" priority="1" numLanes="1" speed="5.56" allow="pedestrian bicycle" oneway="0" width="2.00"/>
    <type id="highway.pedestrian" priority="1" numLanes="1" speed="2.78" allow="pedestrian" oneway="1" width="2.00"/>
    <type id="highway.primary" priority="12" numLanes="2" speed="27.78" disallow="tram rail_urban rail rail_electric rail_fast ship" oneway="0"/>
    <type id="highway.primary_link" priority="7" numLanes="1" speed="22.22" disallow="tram rail_urban rail rail_electric rail_fast ship" oneway="0"/>
    <type id="highway.raceway" priority="15" numLanes="2" speed="83.33" allow="vip" oneway="0"/>
    <type id="highway.residential" priority="3" numLanes="1" speed="13.89" disallow="tram rail_urban rail rail_electric rail_fast ship" oneway="0"/>
    <type id="highway.secondary" priority="11" numLanes="1" speed="27.78" disallow="tram rail_urban rail rail_electric rail_fast ship" oneway="0"/>
    <type id="highway.secondary_link" priority="6" numLanes="1" speed="22.22" disallow="tram rail_urban rail rail_electric rail_fast ship" oneway="0"/>
    <type id="highway.service" priority="1" numLanes="1" speed="5.56" allow="pedestrian delivery bicycle" oneway="0"/>
    <type id="highway.stairs" priority="1" numLanes="1" speed="1.39" allow="pedestrian" oneway="1" width="2.00"/>
    <type id="highway.step" priority="1" numLanes="1" speed="1.39" allow="pedestrian" oneway="1" width="2.00"/>
    <type id="highway.steps" priority="1" numLanes="1" speed="1.39" allow="pedestrian" oneway="1" width="2.00"/>
    <type id="highway.tertiary" priority="10" numLanes="1" speed="22.22" disallow="tram rail_urban rail rail_electric rail_fast ship" oneway="0"/>
    <type id="highway.tertiary_link" priority="5" numLanes="1" speed="22.22" disallow="tram rail_urban rail rail_electric rail_fast ship" oneway="0"/>
    <type id="highway.track" priority="1" numLanes="1" speed="5.56" allow="pedestrian motorcycle moped bicycle" oneway="0"/>
    <type id="highway.trunk" priority="13" numLanes="2" speed="27.78" disallow="pedestrian bicycle tram rail_urban rail rail_electric rail_fast ship" oneway="0"/>
    <type id="highway.trunk_link" priority="8" numLanes="1" speed="22.22" disallow="pedestrian bicycle tram rail_urban rail rail_electric rail_fast ship" oneway="0"/>
    <type id="highway.unclassified" priority="4" numLanes="1" speed="13.89" disallow="tram rail_urban rail rail_electric rail_fast ship" oneway="0"/>
    <type id="highway.unsurfaced" priority="1" numLanes="1" speed="8.33" disallow="tram rail_urban rail rail_electric rail_fast ship" oneway="0"/>
    <type id="railway.highspeed" priority="21" numLanes="1" speed="69.44" allow="rail_fast" oneway="1"/>
    <type id="railway.light_rail" priority="19" numLanes="1" speed="27.78" allow="rail_urban" oneway="1"/>
    <type id="railway.preserved" priority="16" numLanes="1" speed="27.78" allow="rail" oneway="1"/>
    <type id="railway.rail" priority="20" numLanes="1" speed="44.44" allow="rail" oneway="1"/>
    <type id="railway.subway" priority="18" numLanes="1" speed="27.78" allow="rail_urban" oneway="1"/>
    <type id="railway.tram" priority="17" numLanes="1" speed="13.89" allow="tram" oneway="1"/>

    <edge id=":1939144083_0" function="internal">
        <lane id=":1939144083_0_0" index="0" disallow="tram rail_urban rail rail_electric rail_fast ship" speed="27.78" length="9.02" shape="420.79,765.00 418.50,763.62 416.98,762.58 415.60,761.37 413.70,759.49"/>
    </edge>
    <edge id=":1939144083_1" function="internal">
        <lane id=":1939144083_1_0" index="0" disallow="tram rail_urban rail rail_electric rail_fast ship" speed="6.19" length="7.51" shape="420.79,765.00 418.37,763.76 416.41,763.18 414.93,763.26 413.91,764.01"/>
    </edge>
    <edge id=":1939144083_2" function="internal">
        <lane id=":1939144083_2_0" index="0" disallow="tram rail_urban rail rail_electric rail_fast ship" speed="6.34" length="7.47" shape="416.51,765.89 416.89,764.71 416.55,763.25 415.49,761.51 413.70,759.49"/>
    </edge>
    <edge id=":1939144083_3" function="internal">
        <lane id=":1939144083_3_0" index="0" disallow="tram rail_urban rail rail_electric rail_fast ship" speed="3.65" length="4.67" shape="416.51,765.89 416.56,764.45 416.15,763.65 415.27,763.51 413.91,764.01"/>
    </edge>
    <edge id=":3087861266_0" function="internal">
        <lane id=":3087861266_0_0" index="0" disallow="tram rail_urban rail rail_electric rail_fast ship" speed="7.76" length="12.75" shape="368.90,830.73 366.58,833.30 363.96,834.57 361.06,834.53 357.87,833.18"/>
    </edge>
    <edge id=":3087861266_1" function="internal">
        <lane id=":3087861266_1_0" index="0" disallow="tram rail_urban rail rail_electric rail_fast ship" speed="22.22" length="15.40" shape="368.90,830.73 360.23,843.45"/>
    </edge>
    <edge id=":3087861266_2" function="internal">
        <lane id=":3087861266_2_0" index="0" disallow="tram rail_urban rail rail_electric rail_fast ship" speed="3.65" length="1.44" shape="368.90,830.73 368.89,832.17"/>
    </edge>
    <edge id=":3087861266_9" function="internal">
        <lane id=":3087861266_9_0" index="0" disallow="tram rail_urban rail rail_electric rail_fast ship" speed="3.65" length="3.23" shape="368.89,832.17 369.33,832.95 370.22,833.06 371.56,832.52"/>
    </edge>
    <edge id=":3087861266_3" function="internal">
        <lane id=":3087861266_3_0" index="0" disallow="tram rail_urban rail rail_electric rail_fast ship" speed="22.22" length="15.42" shape="362.87,845.26 371.56,832.52"/>
    </edge>
    <edge id=":3087861266_4" function="internal">
        <lane id=":3087861266_4_0" index="0" disallow="tram rail_urban rail rail_electric rail_fast ship" speed="8.04" length="3.33" shape="362.87,845.26 364.17,842.19"/>
    </edge>
    <edge id=":3087861266_5" function="internal">
        <lane id=":3087861266_5_0" index="0" disallow="tram rail_urban rail rail_electric rail_fast ship" speed="3.65" length="1.44" shape="362.87,845.26 362.89,843.82"/>
    </edge>
    <edge id=":3087861266_10" function="internal">
        <lane id=":3087861266_10_0" index="0" disallow="tram rail_urban rail rail_electric rail_fast ship" speed="8.04" length="11.65" shape="364.17,842.19 364.21,842.10 363.82,839.03 361.71,836.06 357.87,833.18"/>
    </edge>
    <edge id=":3087861266_11" function="internal">
        <lane id=":3087861266_11_0" index="0" disallow="tram rail_urban rail rail_electric rail_fast ship" speed="3.65" length="3.23" shape="362.89,843.82 362.46,843.03 361.57,842.91 360.23,843.45"/>
    </edge>
    <edge id=":3087861266_6" function="internal">
        <lane id=":3087861266_6_0" index="0" disallow="tram rail_urban rail rail_electric rail_fast ship" speed="6.16" length="8.34" shape="357.51,836.70 359.63,838.30 360.79,839.95 360.99,841.67 360.23,843.45"/>
    </edge>
    <edge id=":3087861266_7" function="internal">
        <lane id=":3087861266_7_0" index="0" disallow="tram rail_urban rail rail_electric rail_fast ship" speed="8.75" length="16.50" shape="357.51,836.70 361.38,838.24 365.01,838.05 368.40,836.15 371.56,832.52"/>
    </edge>
    <edge id=":3087861266_8" function="internal">
        <lane id=":3087861266_8_0" index="0" disallow="tram rail_urban rail rail_electric rail_fast ship" speed="3.78" length="5.17" shape="357.51,836.70 358.92,835.95 359.45,835.11 359.10,834.19 357.87,833.18"/>
    </edge>
    <edge id=":3087861270_0" function="internal">
        <lane id=":3087861270_0_0" index="0" disallow="tram rail_urban rail rail_electric rail_fast ship" speed="3.65" length="4.67" shape="324.31,800.14 323.65,798.86 322.89,798.38 322.05,798.69 321.13,799.80"/>
    </edge>
    <edge id=":3087861301_0" function="internal">
        <lane id=":3087861301_0_0" index="0" disallow="tram rail_urban rail rail_electric rail_fast ship" speed="27.78" length="15.03" shape="380.88,649.03 371.99,636.82"/>
        <lane id=":3087861301_0_1" index="1" disallow="tram rail_urban rail rail_electric rail_fast ship" speed="27.78" length="15.03" shape="378.26,650.87 369.42,638.72"/>
        <lane id=":3087861301_0_2" index="2" disallow="tram rail_urban rail rail_electric rail_fast ship" speed="27.78" length="15.03" shape="375.64,652.71 366.85,640.63"/>
    </edge>
    <edge id=":3087861301_3" function="internal">
        <lane id=":3087861301_3_0" index="0" disallow="tram rail_urban rail rail_electric rail_fast ship" speed="10.31" length="2.47" shape="375.64,652.71 373.66,651.24"/>
    </edge>
    <edge id=":3087861301_4" function="internal">
        <lane id=":3087861301_4_0" index="0" disallow="tram rail_urban rail rail_electric rail_fast ship" speed="3.65" length="1.44" shape="375.64,652.71 374.30,652.18"/>
    </edge>
    <edge id=":3087861301_13" function="internal">
        <lane id=":3087861301_13_0" index="0" disallow="tram rail_urban rail rail_electric rail_fast ship" speed="10.31" length="17.16" shape="373.66,651.24 373.17,650.88 369.24,650.39 363.87,651.24 357.06,653.43"/>
    </edge>
    <edge id=":3087861301_14" function="internal">
        <lane id=":3087861301_14_0" index="0" disallow="tram rail_urban rail rail_electric rail_fast ship" speed="3.65" length="3.23" shape="374.30,652.18 373.42,652.32 372.99,653.10 373.03,654.54"/>
    </edge>
    <edge id=":3087861301_5" function="internal">
        <lane id=":3087861301_5_0" index="0" disallow="tram rail_urban rail rail_electric rail_fast ship" speed="9.65" length="25.54" shape="358.18,656.43 365.44,653.15 370.31,649.30 371.93,644.59 369.42,638.72"/>
        <lane id=":3087861301_5_1" index="1" disallow="tram rail_urban rail rail_electric rail_fast ship" speed="8.95" length="21.83" shape="358.18,656.43 364.69,653.18 368.30,649.46 369.02,645.28 366.85,640.63"/>
    </edge>
    <edge id=":3087861301_7" function="internal">
        <lane id=":3087861301_7_0" index="0" disallow="tram rail_urban rail rail_electric rail_fast ship" speed="3.65" length="4.67" shape="358.18,656.43 359.02,655.26 359.12,654.37 358.46,653.76 357.06,653.43"/>
    </edge>
    <edge id=":3087861301_8" function="internal">
        <lane id=":3087861301_8_0" index="0" disallow="tram rail_urban rail rail_electric rail_fast ship" speed="5.99" length="9.09" shape="359.14,646.35 360.37,648.63 360.44,650.57 359.33,652.17 357.06,653.43"/>
    </edge>
    <edge id=":3087861301_9" function="internal">
        <lane id=":3087861301_9_0" index="0" disallow="tram rail_urban rail rail_electric rail_fast ship" speed="27.78" length="14.77" shape="359.14,646.35 367.79,658.22"/>
        <lane id=":3087861301_9_1" index="1" disallow="tram rail_urban rail rail_electric rail_fast ship" speed="27.78" length="14.77" shape="361.71,644.44 370.41,656.38"/>
        <lane id=":3087861301_9_2" index="2" disallow="tram rail_urban rail rail_electric rail_fast ship" speed="27.78" length="14.77" shape="364.28,642.54 373.03,654.54"/>
    </edge>
    <edge id=":3087861301_12" function="internal">
        <lane id=":3087861301_12_0" index="0" disallow="tram rail_urban rail rail_electric rail_fast ship" speed="3.65" length="1.44" shape="364.28,642.54 365.63,643.02"/>
    </edge>
    <edge id=":3087861301_15" function="internal">
        <lane id=":3087861301_15_0" index="0" disallow="tram rail_urban rail rail_electric rail_fast ship" speed="3.65" length="3.23" shape="365.63,643.02 366.52,642.87 366.92,642.07 366.85,640.63"/>
    </edge>
    <edge id=":3151910910_0" function="internal">
        <lane id=":3151910910_0_0" index="0" disallow="tram rail_urban rail rail_electric rail_fast ship" speed="3.65" length="4.67" shape="284.81,660.07 283.69,660.97 283.36,661.80 283.82,662.56 285.09,663.25"/>
    </edge>
    <edge id=":3549322514_0" function="internal">
        <lane id=":3549322514_0_0" index="0" disallow="tram rail_urban rail rail_electric rail_fast ship" speed="3.65" length="4.67" shape="636.77,1047.35 637.60,1046.17 637.68,1045.28 637.02,1044.68 635.61,1044.37"/>
    </edge>
    <edge id=":3844458127_0" function="internal">
        <lane id=":3844458127_0_0" index="0" disallow="tram rail_urban rail rail_electric rail_fast ship" speed="3.65" length="4.67" shape="506.55,0.02 505.77,-1.19 504.97,-1.60 504.17,-1.21 503.35,-0.02"/>
    </edge>
    <edge id=":4168345716_0" function="internal">
        <lane id=":4168345716_0_0" index="0" disallow="tram rail_urban rail rail_electric rail_fast ship" speed="3.65" length="4.67" shape="399.42,855.19 400.18,856.42 400.96,856.85 401.77,856.48 402.62,855.31"/>
    </edge>
    <edge id=":436855455_0" function="internal">
        <lane id=":436855455_0_0" index="0" disallow="tram rail_urban rail rail_electric rail_fast ship" speed="3.65" length="4.67" shape="260.64,1213.08 260.86,1214.51 261.42,1215.20 262.32,1215.17 263.54,1214.42"/>
    </edge>
    <edge id=":436865150_0" function="internal">
        <lane id=":436865150_0_0" index="0" disallow="tram rail_urban rail rail_electric rail_fast ship" speed="22.22" length="14.19" shape="406.57,774.23 398.95,786.21"/>
    </edge>
    <edge id=":436865150_1" function="internal">
        <lane id=":436865150_1_0" index="0" disallow="tram rail_urban rail rail_electric rail_fast ship" speed="8.64" length="3.64" shape="406.57,774.23 405.21,777.60"/>
    </edge>
    <edge id=":436865150_2" function="internal">
        <lane id=":436865150_2_0" index="0" disallow="tram rail_urban rail rail_electric rail_fast ship" speed="3.65" length="1.44" shape="406.57,774.23 406.64,775.67"/>
    </edge>
    <edge id=":436865150_9" function="internal">
        <lane id=":436865150_9_0" index="0" disallow="tram rail_urban rail rail_electric rail_fast ship" speed="8.64" length="10.71" shape="405.21,777.60 405.20,780.86 406.54,784.00 409.23,787.02"/>
    </edge>
    <edge id=":436865150_10" function="internal">
        <lane id=":436865150_10_0" index="0" disallow="tram rail_urban rail rail_electric rail_fast ship" speed="3.65" length="3.23" shape="406.64,775.67 407.13,776.42 408.02,776.49 409.32,775.86"/>
    </edge>
    <edge id=":436865150_3" function="internal">
        <lane id=":436865150_3_0" index="0" disallow="tram rail_urban rail rail_electric rail_fast ship" speed="7.26" length="9.86" shape="411.34,784.62 409.44,782.51 408.47,780.34 408.43,778.13 409.32,775.86"/>
    </edge>
    <edge id=":436865150_4" function="internal">
        <lane id=":436865150_4_0" index="0" disallow="tram rail_urban rail rail_electric rail_fast ship" speed="7.79" length="14.70" shape="411.34,784.62 407.90,782.37 404.69,781.89 401.71,783.17 398.95,786.21"/>
    </edge>
    <edge id=":436865150_5" function="internal">
        <lane id=":436865150_5_0" index="0" disallow="tram rail_urban rail rail_electric rail_fast ship" speed="3.65" length="4.67" shape="411.34,784.62 409.91,784.43 409.08,784.76 408.85,785.63 409.23,787.02"/>
    </edge>
    <edge id=":436865150_6" function="internal">
        <lane id=":436865150_6_0" index="0" disallow="tram rail_urban rail rail_electric rail_fast ship" speed="6.25" length="9.05" shape="401.60,788.00 403.30,786.13 405.14,785.34 407.11,785.64 409.23,787.02"/>
    </edge>
    <edge id=":436865150_7" function="internal">
        <lane id=":436865150_7_0" index="0" disallow="tram rail_urban rail rail_electric rail_fast ship" speed="22.22" length="14.38" shape="401.60,788.00 409.32,775.86"/>
    </edge>
    <edge id=":436865150_8" function="internal">
        <lane id=":436865150_8_0" index="0" disallow="tram rail_urban rail rail_electric rail_fast ship" speed="3.65" length="1.44" shape="401.60,788.00 401.61,786.56"/>
    </edge>
    <edge id=":436865150_11" function="internal">
        <lane id=":436865150_11_0" index="0" disallow="tram rail_urban rail rail_electric rail_fast ship" speed="3.65" length="3.23" shape="401.61,786.56 401.17,785.78 400.28,785.66 398.95,786.21"/>
    </edge>
    <edge id=":436874018_0" function="internal">
        <lane id=":436874018_0_0" index="0" disallow="tram rail_urban rail rail_electric rail_fast ship" speed="3.65" length="4.67" shape="3.00,170.40 2.31,169.14 1.54,168.68 0.71,169.01 -0.18,170.14"/>
    </edge>
    <edge id=":cluster_1939144070_1939144076_436835243_436835244_#3more_0" function="internal">
        <lane id=":cluster_1939144070_1939144076_436835243_436835244_#3more_0_0" index="0" disallow="tram rail_urban rail rail_electric rail_fast ship" speed="10.38" length="0.41" shape="445.08,698.15 445.08,698.57"/>
    </edge>
    <edge id=":cluster_1939144070_1939144076_436835243_436835244_#3more_1" function="internal">
        <lane id=":cluster_1939144070_1939144076_436835243_436835244_#3more_1_0" index="0" disallow="tram rail_urban rail rail_electric rail_fast ship" speed="3.65" length="0.68" shape="445.08,698.15 445.38,698.76"/>
    </edge>
    <edge id=":cluster_1939144070_1939144076_436835243_436835244_#3more_21" function="internal">
        <lane id=":cluster_1939144070_1939144076_436835243_436835244_#3more_21_0" index="0" disallow="tram rail_urban rail rail_electric rail_fast ship" speed="10.38" length="15.54" shape="445.08,698.57 445.06,702.26 446.11,705.91 448.24,709.10 451.44,711.84"/>
    </edge>
    <edge id=":cluster_1939144070_1939144076_436835243_436835244_#3more_22" function="internal">
        <lane id=":cluster_1939144070_1939144076_436835243_436835244_#3more_22_0" index="0" disallow="tram rail_urban rail rail_electric rail_fast ship" speed="3.65" length="3.99" shape="445.38,698.76 445.72,699.45 446.46,699.95 447.31,699.65 448.26,698.57"/>
    </edge>
    <edge id=":cluster_1939144070_1939144076_436835243_436835244_#3more_2" function="internal">
        <lane id=":cluster_1939144070_1939144076_436835243_436835244_#3more_2_0" index="0" disallow="tram rail_urban rail rail_electric rail_fast ship" speed="10.29" length="46.22" shape="425.37,729.77 438.62,735.07 447.38,733.84 451.65,726.10 451.44,711.84"/>
    </edge>
    <edge id=":cluster_1939144070_1939144076_436835243_436835244_#3more_3" function="internal">
        <lane id=":cluster_1939144070_1939144076_436835243_436835244_#3more_3_0" index="0" disallow="tram rail_urban rail rail_electric rail_fast ship" speed="27.78" length="33.49" shape="419.22,731.63 417.73,721.24 418.50,713.28 418.46,706.12 414.55,698.15"/>
        <lane id=":cluster_1939144070_1939144076_436835243_436835244_#3more_3_1" index="1" disallow="tram rail_urban rail rail_electric rail_fast ship" speed="27.78" length="33.49" shape="416.16,732.55 414.81,722.55 415.76,714.91 415.87,707.99 412.02,700.11"/>
        <lane id=":cluster_1939144070_1939144076_436835243_436835244_#3more_3_2" index="2" disallow="tram rail_urban rail rail_electric rail_fast ship" speed="27.78" length="33.49" shape="413.10,733.48 411.90,723.85 413.02,716.55 413.28,709.85 409.49,702.06"/>
    </edge>
    <edge id=":cluster_1939144070_1939144076_436835243_436835244_#3more_6" function="internal">
        <lane id=":cluster_1939144070_1939144076_436835243_436835244_#3more_6_0" index="0" disallow="tram rail_urban rail rail_electric rail_fast ship" speed="12.22" length="54.54" shape="405.17,733.95 408.26,721.89 415.52,718.70 426.97,724.39 442.59,738.97"/>
    </edge>
    <edge id=":cluster_1939144070_1939144076_436835243_436835244_#3more_7" function="internal">
        <lane id=":cluster_1939144070_1939144076_436835243_436835244_#3more_7_0" index="0" disallow="tram rail_urban rail rail_electric rail_fast ship" speed="20.30" length="33.79" shape="405.17,733.95 407.26,728.53 410.88,720.59 412.72,711.35 409.49,702.06"/>
        <lane id=":cluster_1939144070_1939144076_436835243_436835244_#3more_7_1" index="1" disallow="tram rail_urban rail rail_electric rail_fast ship" speed="21.01" length="36.24" shape="405.17,733.95 407.65,728.23 412.14,719.61 414.86,709.70 412.02,700.11"/>
    </edge>
    <edge id=":cluster_1939144070_1939144076_436835243_436835244_#3more_9" function="internal">
        <lane id=":cluster_1939144070_1939144076_436835243_436835244_#3more_9_0" index="0" disallow="tram rail_urban rail rail_electric rail_fast ship" speed="27.78" length="55.91" shape="405.17,733.95 411.94,727.01 426.58,716.25 441.29,705.49 448.26,698.57"/>
    </edge>
    <edge id=":cluster_1939144070_1939144076_436835243_436835244_#3more_10" function="internal">
        <lane id=":cluster_1939144070_1939144076_436835243_436835244_#3more_10_0" index="0" disallow="tram rail_urban rail rail_electric rail_fast ship" speed="14.64" length="70.16" shape="405.17,733.95 409.22,713.45 418.28,702.93 432.36,702.39 451.44,711.84"/>
    </edge>
    <edge id=":cluster_1939144070_1939144076_436835243_436835244_#3more_11" function="internal">
        <lane id=":cluster_1939144070_1939144076_436835243_436835244_#3more_11_0" index="0" disallow="tram rail_urban rail rail_electric rail_fast ship" speed="12.55" length="57.60" shape="405.17,733.95 408.43,720.02 415.94,715.63 427.71,720.79 443.73,735.49"/>
        <lane id=":cluster_1939144070_1939144076_436835243_436835244_#3more_11_1" index="1" disallow="tram rail_urban rail rail_electric rail_fast ship" speed="12.88" length="60.80" shape="405.17,733.95 408.60,718.15 416.36,712.56 428.45,717.18 444.86,732.01"/>
        <lane id=":cluster_1939144070_1939144076_436835243_436835244_#3more_11_2" index="2" disallow="tram rail_urban rail rail_electric rail_fast ship" speed="13.22" length="64.11" shape="405.17,733.95 408.77,716.28 416.78,709.48 429.18,713.57 445.99,728.54"/>
    </edge>
    <edge id=":cluster_1939144070_1939144076_436835243_436835244_#3more_14" function="internal">
        <lane id=":cluster_1939144070_1939144076_436835243_436835244_#3more_14_0" index="0" disallow="tram rail_urban rail rail_electric rail_fast ship" speed="27.78" length="49.84" shape="401.89,707.93 410.11,714.17 420.51,717.66 432.35,722.32 444.86,732.01"/>
        <lane id=":cluster_1939144070_1939144076_436835243_436835244_#3more_14_1" index="1" disallow="tram rail_urban rail rail_electric rail_fast ship" speed="27.78" length="47.92" shape="404.42,705.97 412.51,712.07 422.60,715.22 433.99,719.38 445.99,728.54"/>
        <lane id=":cluster_1939144070_1939144076_436835243_436835244_#3more_14_2" index="2" disallow="tram rail_urban rail rail_electric rail_fast ship" speed="27.78" length="46.02" shape="406.95,704.02 414.92,709.98 424.68,712.77 435.62,716.44 447.13,725.06"/>
        <lane id=":cluster_1939144070_1939144076_436835243_436835244_#3more_14_3" index="3" disallow="tram rail_urban rail rail_electric rail_fast ship" speed="27.78" length="45.63" shape="406.95,704.02 414.89,709.71 424.69,711.77 435.94,714.38 448.22,721.72"/>
    </edge>
    <edge id=":cluster_1939144070_1939144076_436835243_436835244_#3more_18" function="internal">
        <lane id=":cluster_1939144070_1939144076_436835243_436835244_#3more_18_0" index="0" disallow="tram rail_urban rail rail_electric rail_fast ship" speed="27.78" length="46.16" shape="406.95,704.02 417.19,709.86 431.08,711.34 444.03,711.11 451.44,711.84"/>
    </edge>
    <edge id=":cluster_1939144070_1939144076_436835243_436835244_#3more_19" function="internal">
        <lane id=":cluster_1939144070_1939144076_436835243_436835244_#3more_19_0" index="0" disallow="tram rail_urban rail rail_electric rail_fast ship" speed="12.20" length="54.99" shape="406.95,704.02 418.95,714.12 431.78,716.77 442.53,711.68 448.26,698.57"/>
    </edge>
    <edge id=":cluster_1939144070_1939144076_436835243_436835244_#3more_20" function="internal">
        <lane id=":cluster_1939144070_1939144076_436835243_436835244_#3more_20_0" index="0" disallow="tram rail_urban rail rail_electric rail_fast ship" speed="3.65" length="4.67" shape="406.95,704.02 408.32,704.48 409.20,704.31 409.59,703.50 409.49,702.06"/>
    </edge>
    <edge id=":cluster_1939144085_287319177_436837770_5973684183_0" function="internal">
        <lane id=":cluster_1939144085_287319177_436837770_5973684183_0_0" index="0" disallow="tram rail_urban rail rail_electric rail_fast ship" speed="11.25" length="41.68" shape="466.51,739.33 463.25,749.44 457.12,753.43 448.11,751.30 436.22,743.03"/>
    </edge>
    <edge id=":cluster_1939144085_287319177_436837770_5973684183_1" function="internal">
        <lane id=":cluster_1939144085_287319177_436837770_5973684183_1_0" index="0" disallow="tram rail_urban rail rail_electric rail_fast ship" speed="27.78" length="111.19" shape="466.51,739.33 469.21,751.97 479.82,771.76 498.34,798.69 524.78,832.76"/>
        <lane id=":cluster_1939144085_287319177_436837770_5973684183_1_1" index="1" disallow="tram rail_urban rail rail_electric rail_fast ship" speed="27.78" length="111.75" shape="466.51,739.33 468.82,753.72 478.86,774.40 496.64,801.35 522.14,834.59"/>
        <lane id=":cluster_1939144085_287319177_436837770_5973684183_1_2" index="2" disallow="tram rail_urban rail rail_electric rail_fast ship" speed="27.78" length="112.39" shape="466.51,739.33 468.43,755.47 477.90,777.03 494.93,804.01 519.51,836.42"/>
    </edge>
    <edge id=":cluster_1939144085_287319177_436837770_5973684183_4" function="internal">
        <lane id=":cluster_1939144085_287319177_436837770_5973684183_4_0" index="0" disallow="tram rail_urban rail rail_electric rail_fast ship" speed="15.37" length="52.64" shape="466.51,739.33 462.58,753.00 455.18,762.42 444.29,767.56 429.92,768.43"/>
    </edge>
    <edge id=":cluster_1939144085_287319177_436837770_5973684183_5" function="internal">
        <lane id=":cluster_1939144085_287319177_436837770_5973684183_5_0" index="0" disallow="tram rail_urban rail rail_electric rail_fast ship" speed="20.84" length="46.91" shape="466.51,739.33 461.32,746.17 450.58,756.76 440.03,767.36 435.39,774.22"/>
    </edge>
    <edge id=":cluster_1939144085_287319177_436837770_5973684183_6" function="internal">
        <lane id=":cluster_1939144085_287319177_436837770_5973684183_6_0" index="0" disallow="tram rail_urban rail rail_electric rail_fast ship" speed="11.61" length="44.45" shape="466.51,739.33 462.99,751.06 456.61,756.15 447.35,754.59 435.22,746.38"/>
        <lane id=":cluster_1939144085_287319177_436837770_5973684183_6_1" index="1" disallow="tram rail_urban rail rail_electric rail_fast ship" speed="11.96" length="47.33" shape="466.51,739.33 462.74,752.68 456.10,758.87 446.59,757.88 434.22,749.73"/>
        <lane id=":cluster_1939144085_287319177_436837770_5973684183_6_2" index="2" disallow="tram rail_urban rail rail_electric rail_fast ship" speed="12.32" length="50.29" shape="466.51,739.33 462.48,754.30 455.59,761.58 445.83,761.18 433.22,753.08"/>
    </edge>
    <edge id=":cluster_1939144085_287319177_436837770_5973684183_9" function="internal">
        <lane id=":cluster_1939144085_287319177_436837770_5973684183_9_0" index="0" disallow="tram rail_urban rail rail_electric rail_fast ship" speed="27.78" length="100.43" shape="509.10,843.66 493.39,821.33 473.81,794.75 453.15,769.14 448.11,763.98"/>